*Heading 
** Job name: TestShellv3 Model name: Model-1 
** Generated by: Abaqus/CAE 2021.HF8 
*Preprint, echo=NO, model=NO, history=NO, contact=NO 
** 
** PARTS 
** 
*Part, name=BladeLikeMold 
*Node 
1,  -0.66019392, 2.2139322e-05, -0.544337273 
2, -0.660595357, 0.0400254987, -0.545830548 
3, -0.660996914, 0.0800292641, -0.547320783 
4,  -0.66139859,  0.120033324, -0.548807979 
5, -0.661800325,  0.160037592, -0.550292134 
6, -0.662202179,  0.200041965, -0.551773548 
7, -0.662604094,  0.240046337, -0.553252578 
8, -0.663006067,  0.280050635,  -0.55472976 
9, -0.663408101,  0.320054799,  -0.55620569 
10, -0.663810134,  0.360058784, -0.557681024 
11, -0.664212167,  0.400062561, -0.559156418 
12, -0.664614141,  0.440066159, -0.560632646 
13, -0.665016115,  0.480069578, -0.562110364 
14, -0.665418029,  0.520072877, -0.563590288 
15, -0.665819764,  0.560076058, -0.565073013 
16,  -0.66622144,  0.600079179, -0.566559196 
17, -0.666622996,   0.64008224, -0.568049133 
18, -0.667024434,  0.680085182, -0.569543302 
19, -0.667425692,  0.720087945, -0.571041822 
20, -0.667826831,   0.76009053, -0.572544873 
** ... 4323 like lines cut
*Element, type=S4 
1,  102,  103,    2,    1 
2,  103,  104,    3,    2 
3,  104,  105,    4,    3 
4,  105,  106,    5,    4 
5,  106,  107,    6,    5 
6,  107,  108,    7,    6 
7,  108,  109,    8,    7 
8,  109,  110,    9,    8 
9,  110,  111,   10,    9 
10,  111,  112,   11,   10 
11,  112,  113,   12,   11 
12,  113,  114,   13,   12 
13,  114,  115,   14,   13 
14,  115,  116,   15,   14 
15,  116,  117,   16,   15 
16,  117,  118,   17,   16 
17,  118,  119,   18,   17 
18,  119,  120,   19,   18 
19,  120,  121,   20,   19 
20,  121,  122,   21,   20 
** ... 4180 like lines cut
*Nset, nset=GeometrySet, generate 
1,  4343,     1 
*Elset, elset=GeometrySet, generate 
1,  4200,     1 
*Nset, nset=EdgeSet, generate 
4243,  4343,     1 
*Elset, elset=EdgeSet, generate 
4101,  4200,     1 
*Nset, nset=BotEdgeSet, generate 
1,  4243,   101 
*Elset, elset=BotEdgeSet, generate 
1,  4101,   100 
*Nset, nset=_PickedSet34, internal, generate 
1,  4343,     1 
*Elset, elset=_PickedSet34, internal, generate 
1,  4200,     1 
*Nset, nset=TopEdge, generate 
101,  4343,   101 
*Elset, elset=TopEdge, generate 
100,  4200,   100 
*Nset, nset=TopNodes, generate 
101,  4343,   101 
*Nset, nset=TopNodes_left, generate 
101,  2121,   101 
*Nset, nset=TopNodes_right, generate 
2323,  4343,   101 
*Nset, nset=TopNodes_center_left 
2121, 
*Nset, nset=TopNodes_center_right 
2323, 
*Elset, elset=CMShell_Orient_NewCSYS, generate 
1,  4200,     1 
*Orientation, name=Ori-1 
1., 0., 0., 0., 1., 0. 
1, 0. 
*Elset, elset=Elem_1_set 
  1, 
*Elset, elset=Elem_2_set 
  2, 
*Elset, elset=Elem_3_set 
  3, 
*Elset, elset=Elem_4_set 
  4, 
*Elset, elset=Elem_5_set 
  5, 
*Elset, elset=Elem_6_set 
  6, 
*Elset, elset=Elem_7_set 
  7, 
*Elset, elset=Elem_8_set 
  8, 
*Elset, elset=Elem_9_set 
  9, 
*Elset, elset=Elem_10_set 
  10, 
*Elset, elset=Elem_11_set 
  11, 
*Elset, elset=Elem_12_set 
  12, 
*Elset, elset=Elem_13_set 
  13, 
*Elset, elset=Elem_14_set 
  14, 
*Elset, elset=Elem_15_set 
  15, 
*Elset, elset=Elem_16_set 
  16, 
*Elset, elset=Elem_17_set 
  17, 
*Elset, elset=Elem_18_set 
  18, 
*Elset, elset=Elem_19_set 
  19, 
*Elset, elset=Elem_20_set 
** ... 8361 like lines cut
*Shell Section, elset=Elem_1_set, composite, orientation=Ori-1, offset=SNEG 
0.001, 3, GlassMechanical, 3.4936 
*Shell Section, elset=Elem_2_set, composite, orientation=Ori-1, offset=SNEG 
0.001, 3, GlassMechanical, 3.1732 
*Shell Section, elset=Elem_3_set, composite, orientation=Ori-1, offset=SNEG 
0.001, 3, GlassMechanical, 3.1732 
*Shell Section, elset=Elem_4_set, composite, orientation=Ori-1, offset=SNEG 
0.001, 3, GlassMechanical, 2.8313 
*Shell Section, elset=Elem_5_set, composite, orientation=Ori-1, offset=SNEG 
0.001, 3, GlassMechanical, 2.4665 
*Shell Section, elset=Elem_6_set, composite, orientation=Ori-1, offset=SNEG 
0.001, 3, GlassMechanical, 2.1899 
*Shell Section, elset=Elem_7_set, composite, orientation=Ori-1, offset=SNEG 
0.001, 3, GlassMechanical, 1.8839 
*Shell Section, elset=Elem_8_set, composite, orientation=Ori-1, offset=SNEG 
0.001, 3, GlassMechanical, 1.8839 
*Shell Section, elset=Elem_9_set, composite, orientation=Ori-1, offset=SNEG 
0.001, 3, GlassMechanical, 1.7486 
*Shell Section, elset=Elem_10_set, composite, orientation=Ori-1, offset=SNEG 
0.001, 3, GlassMechanical, 1.5711 
*Shell Section, elset=Elem_11_set, composite, orientation=Ori-1, offset=SNEG 
0.001, 3, GlassMechanical, 1.2459 
*Shell Section, elset=Elem_12_set, composite, orientation=Ori-1, offset=SNEG 
0.001, 3, GlassMechanical, 0.88529 
*Shell Section, elset=Elem_13_set, composite, orientation=Ori-1, offset=SNEG 
0.001, 3, GlassMechanical, 0.88529 
*Shell Section, elset=Elem_14_set, composite, orientation=Ori-1, offset=SNEG 
0.001, 3, GlassMechanical, 0.62752 
*Shell Section, elset=Elem_15_set, composite, orientation=Ori-1, offset=SNEG 
0.001, 3, GlassMechanical, 0.3959 
*Shell Section, elset=Elem_16_set, composite, orientation=Ori-1, offset=SNEG 
0.001, 3, GlassMechanical, 0.18517 
*Shell Section, elset=Elem_17_set, composite, orientation=Ori-1, offset=SNEG 
0.001, 3, GlassMechanical, 0.096556 
*Shell Section, elset=Elem_18_set, composite, orientation=Ori-1, offset=SNEG 
0.001, 3, GlassMechanical, 0.096556 
*Shell Section, elset=Elem_19_set, composite, orientation=Ori-1, offset=SNEG 
0.001, 3, GlassMechanical, -0.12318 
*Shell Section, elset=Elem_20_set, composite, orientation=Ori-1, offset=SNEG 
0.001, 3, GlassMechanical, -0.30645 
** ... 8360 like lines cut
*End Part 
**   
** 
** ASSEMBLY 
** 
*Assembly, name=Assembly 
**   
*Instance, name=BladeLikeMold-1, part=BladeLikeMold 
*End Instance 
**   
*Node 
1, -0.700073779,   4.00000858, -0.701707363 
*Nset, nset=Set-3, instance=BladeLikeMold-1 
1,    2,    3,    4,    5,    6,    7,    8,    9,   10,   11,   12,   13,   14,   15,   16 
17,   18,   19,   20,   21,   22,   23,   24,   25,   26,   27,   28,   29,   30,   31,   32 
33,   34,   35,   36,   37,   38,   39,   40,   41,   42,   43,   44,   45,   46,   47,   48 
49,   50,   51,   52,   53,   54,   55,   56,   57,   58,   59,   60,   61,   62,   63,   64 
65,   66,   67,   68,   69,   70,   71,   72,   73,   74,   75,   76,   77,   78,   79,   80 
81,   82,   83,   84,   85,   86,   87,   88,   89,   90,   91,   92,   93,   94,   95,   96 
97,   98,   99,  100,  101, 4243, 4244, 4245, 4246, 4247, 4248, 4249, 4250, 4251, 4252, 4253 
4254, 4255, 4256, 4257, 4258, 4259, 4260, 4261, 4262, 4263, 4264, 4265, 4266, 4267, 4268, 4269 
4270, 4271, 4272, 4273, 4274, 4275, 4276, 4277, 4278, 4279, 4280, 4281, 4282, 4283, 4284, 4285 
4286, 4287, 4288, 4289, 4290, 4291, 4292, 4293, 4294, 4295, 4296, 4297, 4298, 4299, 4300, 4301 
4302, 4303, 4304, 4305, 4306, 4307, 4308, 4309, 4310, 4311, 4312, 4313, 4314, 4315, 4316, 4317 
4318, 4319, 4320, 4321, 4322, 4323, 4324, 4325, 4326, 4327, 4328, 4329, 4330, 4331, 4332, 4333 
4334, 4335, 4336, 4337, 4338, 4339, 4340, 4341, 4342, 4343 
*Elset, elset=Set-3, instance=BladeLikeMold-1 
1,    2,    3,    4,    5,    6,    7,    8,    9,   10,   11,   12,   13,   14,   15,   16 
17,   18,   19,   20,   21,   22,   23,   24,   25,   26,   27,   28,   29,   30,   31,   32 
33,   34,   35,   36,   37,   38,   39,   40,   41,   42,   43,   44,   45,   46,   47,   48 
49,   50,   51,   52,   53,   54,   55,   56,   57,   58,   59,   60,   61,   62,   63,   64 
65,   66,   67,   68,   69,   70,   71,   72,   73,   74,   75,   76,   77,   78,   79,   80 
81,   82,   83,   84,   85,   86,   87,   88,   89,   90,   91,   92,   93,   94,   95,   96 
97,   98,   99,  100, 4101, 4102, 4103, 4104, 4105, 4106, 4107, 4108, 4109, 4110, 4111, 4112 
4113, 4114, 4115, 4116, 4117, 4118, 4119, 4120, 4121, 4122, 4123, 4124, 4125, 4126, 4127, 4128 
4129, 4130, 4131, 4132, 4133, 4134, 4135, 4136, 4137, 4138, 4139, 4140, 4141, 4142, 4143, 4144 
4145, 4146, 4147, 4148, 4149, 4150, 4151, 4152, 4153, 4154, 4155, 4156, 4157, 4158, 4159, 4160 
4161, 4162, 4163, 4164, 4165, 4166, 4167, 4168, 4169, 4170, 4171, 4172, 4173, 4174, 4175, 4176 
4177, 4178, 4179, 4180, 4181, 4182, 4183, 4184, 4185, 4186, 4187, 4188, 4189, 4190, 4191, 4192 
4193, 4194, 4195, 4196, 4197, 4198, 4199, 4200 
*Nset, nset=Set-4, instance=BladeLikeMold-1 
101, 
*Nset, nset=Set-5 
1, 
*Nset, nset=TopEdge, instance=BladeLikeMold-1, generate 
101,  4343,   101 
*Elset, elset=TopEdge, instance=BladeLikeMold-1, generate 
100,  4200,   100 
*Nset, nset=_PickedSet4, internal, instance=BladeLikeMold-1 
101, 
*Nset, nset=_PickedSet8, internal 
1, 
*Elset, elset=_Surf-1_E2, internal, instance=BladeLikeMold-1, generate 
100,  4200,   100 
*Surface, type=ELEMENT, name=Surf-1 
_Surf-1_E2, E2 
*Surface, type=NODE, name=TopEdge_CNS_, internal 
TopEdge, 1. 
** Constraint: RigidTop 
*MPC 
BEAM, TopEdge, _PickedSet4 
*End Assembly 
**  
** MATERIALS 
**  
*Material, name=GlassMechanical 
*Elastic, type=LAMINA 
5.5e+10,   9e+09,     0.3, 3.6e+09, 3.6e+09, 3.5e+09 
** ---------------------------------------------------------------- 
**  
** STEP: Step-1 
**  
*Step, name=Step-1, nlgeom=NO 
*Static 
1., 1., 1e-05, 1. 
**  
** BOUNDARY CONDITIONS 
**  
** Name: Fixation Type: Displacement/Rotation 
*Boundary 
BladeLikeMold-1.BotEdgeSet, 1, 1 
BladeLikeMold-1.BotEdgeSet, 2, 2 
BladeLikeMold-1.BotEdgeSet, 3, 3 
**  
** LOADS 
**  
** Name: Force   Type: Concentrated force 
*Cload, op=NEW 
BladeLikeMold-1.TopNodes, 1, 0. 
BladeLikeMold-1.TopNodes, 2, 1. 
BladeLikeMold-1.TopNodes, 3, 0. 
** Name: ForceCouple1   Type: Concentrated force 
*Cload, op=NEW 
BladeLikeMold-1.TopNodes_left, 2, 2.449 
** Name: ForceCouple2   Type: Concentrated force 
*Cload, op=NEW 
BladeLikeMold-1.TopNodes_right, 2, -2.449 
** Name: Moment   Type: Moment 
*Cload, op=NEW 
BladeLikeMold-1.TopNodes, 4, 1. 
BladeLikeMold-1.TopNodes, 5, 0. 
**  
** OUTPUT REQUESTS 
**  
*Restart, write, frequency=0 
**  
** FIELD OUTPUT: F-Output-1 
**  
*Output, field 
*Node Output, variable=PRESELECT 
*Element Output, directions=YES, variable=PRESELECT 
1, 2, 3, 4, 5, 6, 7, 8, 9, 10, 11, 12, 13, 14, 15, 16 
*Element Output, directions=YES, variable=PRESELECT 
17, 18, 19, 20, 21, 22, 23, 24, 25, 26, 27, 28, 29, 30 
**  
** HISTORY OUTPUT: H-Output-1 
**  
*Output, history, variable=PRESELECT 
*End Step 
